Info: SIMULATION PARAMETERS:
Info: TIMESTEP               2
Info: NUMBER OF STEPS        0
Info: STEPS PER CYCLE        20
Info: PERIODIC CELL BASIS 1  108.861 0 0
Info: PERIODIC CELL BASIS 2  0 108.861 0
Info: PERIODIC CELL BASIS 3  0 0 77.758
Info: PERIODIC CELL CENTER   0 0 0
Info: MIN ATOMS PER PATCH    40
Info: EMPTY PATCH LOAD       40 ATOMS
Info: INITIAL TEMPERATURE    300
Info: CENTER OF MASS MOVING INITIALLY? NO
Info: DIELECTRIC             1
Info: EXCLUDE                SCALED ONE-FOUR
Info: 1-4 ELECTROSTATICS SCALED BY 1
Info: MODIFIED 1-4 VDW PARAMETERS WILL BE USED
Info: NO DCD TRAJECTORY OUTPUT
Info: NO EXTENDED SYSTEM TRAJECTORY OUTPUT
Info: NO VELOCITY DCD OUTPUT
Info: NO FORCE DCD OUTPUT
Info: OUTPUT FILENAME        out_apoa1
Info: BINARY OUTPUT FILES WILL BE USED
Info: NO RESTART FILE
Info: SWITCHING ACTIVE
Info: SWITCHING ON           8
Info: SWITCHING OFF          9
Info: PAIRLIST DISTANCE      13.5
Info: PAIRLIST SHRINK RATE   0
Info: PAIRLIST GROW RATE     0
Info: PAIRLIST TRIGGER       0
Info: PAIRLISTS PER CYCLE    2
Info: PAIRLISTS ENABLED
Info: MARGIN                 4
Info: HYDROGEN GROUP CUTOFF  2.5
Info: PATCH DIMENSION        20
Info: ENERGY OUTPUT STEPS    1000
Info: ENERGY EVALUATION STEPS    1000
Info: OUTPUT ENERGY PRECISION 4
Info: CROSSTERM ENERGY INCLUDED IN DIHEDRAL
Info: TIMING OUTPUT STEPS    1000
Info: PRESSURE OUTPUT STEPS  1000
Info: PARTICLE MESH EWALD (PME) ACTIVE
Info: PME TOLERANCE               1e-06
Info: PME EWALD COEFFICIENT       0.348832
Info: PME INTERPOLATION ORDER     4
Info: PME GRID DIMENSIONS         108 108 80
Info: PME MAXIMUM GRID SPACING    1.5
Info: PME CALCULATION WILL BE PERFORMED ON GPU
Info: FULL ELECTROSTATIC EVALUATION FREQUENCY      2
Info: USING VERLET I (r-RESPA) MTS SCHEME.
Info: C1 SPLITTING OF LONG RANGE ELECTROSTATICS
Info: PLACING ATOMS IN PATCHES BY HYDROGEN GROUPS
Info: RIGID BONDS TO HYDROGEN : ALL
Info:         ERROR TOLERANCE : 1e-08
Info:          MAX ITERATIONS : 100
Info: RIGID WATER USING SETTLE ALGORITHM
Info: RANDOM NUMBER SEED     314159
Info: USE HYDROGEN BONDS?    NO
Info: COORDINATE PDB         ./apoa1.pdb
Info: STRUCTURE FILE         ./apoa1.psf
Info: PARAMETER file: XPLOR format! (default)
Info: PARAMETERS             ./par_all22_prot_lipid.xplor
Info: PARAMETERS             ./par_all22_popc.xplor
Info: USING ARITHMETIC MEAN TO COMBINE L-J SIGMA PARAMETERS
Info: SUMMARY OF PARAMETERS:
Info: 177 BONDS
Info: 435 ANGLES
Info: 446 DIHEDRAL
Info: 45 IMPROPER
Info: 0 CROSSTERM
Info: 83 VDW
Info: 6 VDW_PAIRS
Info: 0 NBTHOLE_PAIRS
Info: STRUCTURE SUMMARY:
Info: 92224 ATOMS
Info: 70660 BONDS
Info: 74136 ANGLES
Info: 74130 DIHEDRALS
Info: 1402 IMPROPERS
Info: 0 CROSSTERMS
Info: 0 EXCLUSIONS
Info: 1568 DIHEDRALS WITH MULTIPLE PERIODICITY (BASED ON PSF FILE)
Info: 80690 RIGID BONDS
Info: 195979 DEGREES OF FREEDOM
Info: 32992 HYDROGEN GROUPS
Info: 4 ATOMS IN LARGEST HYDROGEN GROUP
Info: 32992 MIGRATION GROUPS
Info: 4 ATOMS IN LARGEST MIGRATION GROUP
Info: TOTAL MASS = 553785 amu
Info: TOTAL CHARGE = -14 e
Info: MASS DENSITY = 0.997951 g/cm^3
Info: ATOM DENSITY = 0.100081 atoms/A^3
Info: ADDED 218698 IMPLICIT EXCLUSIONS
Info: NONBONDED TABLE R-SQUARED SPACING: 0.0625
Info: NONBONDED TABLE SIZE: 705 POINTS
Info: REMOVING COM VELOCITY 0.0302921 -0.0223432 0.0141287
Info: Use 3D box decompostion in PME FFT.
Info: Updated CUDA force table with 4096 elements.
Info: Updated CUDA LJ table with 83 x 83 elements.
Info: Updated CUDA force table with 4096 elements.
Info: Updated CUDA LJ table with 83 x 83 elements.
Info: Updated CUDA force table with 4096 elements.
Info: Updated CUDA LJ table with 83 x 83 elements.
Info: Updated CUDA force table with 4096 elements.
Info: Updated CUDA LJ table with 83 x 83 elements.
Info: Found 318 unique exclusion lists needing 1060 bytes
Info: Found 318 unique exclusion lists needing 1060 bytes
Info: Found 318 unique exclusion lists needing 1060 bytes
Info: Found 318 unique exclusion lists needing 1060 bytes
TCL: Running for 1000000 steps
ETITLE: TS BOND ANGLE DIHED IMPRP ELECT VDW BOUNDARY MISC KINETIC TOTAL TEMP POTENTIAL TOTALAVG TEMPAVG PRESSURE GPRESSURE VOLUME PRESSAVG GPRESSAVG
ENERGY: 0 723.4864 6503.1208 4548.6751 48.0513 -325778.0065 25253.1973 0.0000 0.0000 58510.4771 -230190.9985 300.4792 -288701.4756 -230190.9985 300.4792 -1130.5022 -920.6617 921491.4634 -1130.5022 -920.6617
ENERGY: 61000 2326.5482 12120.0500 5539.7588 201.0024 -308455.1918 21727.6505 0.0000 0.0000 36864.6938 -229675.4880 189.3178 -266540.1818 -229681.6163 188.8349 -1362.0743 -1301.7361 921491.4634 -1317.1804 -1256.7229
ENERGY: 122000 2342.4365 12065.0752 5537.6784 217.7012 -308543.3947 21732.7216 0.0000 0.0000 36992.3703 -229655.4115 189.9735 -266647.7818 -229659.8909 189.5566 -1232.8004 -1170.7222 921491.4634 -1242.4490 -1180.8636
ENERGY: 183000 2385.8920 12122.5638 5453.7258 211.3343 -308562.7288 21721.4669 0.0000 0.0000 37031.8026 -229635.9434 190.1760 -266667.7460 -229635.4413 190.1447 -1201.5120 -1140.5294 921491.4634 -1191.7819 -1131.7817
ENERGY: 244000 2345.9412 12117.7807 5438.8901 220.0725 -307895.6725 21054.4682 0.0000 0.0000 37109.1107 -229609.4092 190.5730 -266718.5198 -229612.9297 190.4303 -1241.5200 -1176.8275 921491.4634 -1146.2584 -1085.7290
ENERGY: 305000 2365.2611 12050.9140 5458.1463 209.3562 -308466.4762 21606.5817 0.0000 0.0000 37188.0209 -229588.1961 190.9783 -266776.2169 -229594.2585 190.8108 -978.2236 -918.5841 921491.4634 -1153.9655 -1092.3217
