Info: SIMULATION PARAMETERS:
Info: TIMESTEP               2
Info: NUMBER OF STEPS        0
Info: STEPS PER CYCLE        20
Info: PERIODIC CELL BASIS 1  62.23 0 0
Info: PERIODIC CELL BASIS 2  0 62.23 0
Info: PERIODIC CELL BASIS 3  0 0 62.23
Info: PERIODIC CELL CENTER   0 0 0
Info: MIN ATOMS PER PATCH    40
Info: EMPTY PATCH LOAD       40 ATOMS
Info: INITIAL TEMPERATURE    300
Info: CENTER OF MASS MOVING INITIALLY? NO
Info: DIELECTRIC             1
Info: EXCLUDE                SCALED ONE-FOUR
Info: 1-4 ELECTROSTATICS SCALED BY 1
Info: MODIFIED 1-4 VDW PARAMETERS WILL BE USED
Info: NO DCD TRAJECTORY OUTPUT
Info: NO EXTENDED SYSTEM TRAJECTORY OUTPUT
Info: NO VELOCITY DCD OUTPUT
Info: NO FORCE DCD OUTPUT
Info: OUTPUT FILENAME        out_dhfr
Info: BINARY OUTPUT FILES WILL BE USED
Info: NO RESTART FILE
Info: SWITCHING ACTIVE
Info: SWITCHING ON           10
Info: SWITCHING OFF          12
Info: PAIRLIST DISTANCE      13.5
Info: PAIRLIST SHRINK RATE   0
Info: PAIRLIST GROW RATE     0
Info: PAIRLIST TRIGGER       0
Info: PAIRLISTS PER CYCLE    2
Info: PAIRLISTS ENABLED
Info: MARGIN                 2
Info: HYDROGEN GROUP CUTOFF  2.5
Info: PATCH DIMENSION        18
Info: ENERGY OUTPUT STEPS    5000
Info: ENERGY EVALUATION STEPS    5000
Info: OUTPUT ENERGY PRECISION 4
Info: CROSSTERM ENERGY INCLUDED IN DIHEDRAL
Info: TIMING OUTPUT STEPS    5000
Info: PRESSURE OUTPUT STEPS  5000
Info: LANGEVIN DYNAMICS ACTIVE
Info: LANGEVIN TEMPERATURE   300
Info: LANGEVIN USING BBK INTEGRATOR
Info: LANGEVIN DAMPING COEFFICIENT IS 5 INVERSE PS
Info: LANGEVIN DYNAMICS NOT APPLIED TO HYDROGENS
Info: LANGEVIN PISTON PRESSURE CONTROL ACTIVE
Info:        TARGET PRESSURE IS 1.01325 BAR
Info:     OSCILLATION PERIOD IS 100 FS
Info:             DECAY TIME IS 50 FS
Info:     PISTON TEMPERATURE IS 300 K
Info:       PRESSURE CONTROL IS GROUP-BASED
Info:    INITIAL STRAIN RATE IS 0 0 0
Info:       CELL FLUCTUATION IS ISOTROPIC
Info: PARTICLE MESH EWALD (PME) ACTIVE
Info: PME TOLERANCE               1e-06
Info: PME EWALD COEFFICIENT       0.257952
Info: PME INTERPOLATION ORDER     4
Info: PME GRID DIMENSIONS         64 64 64
Info: PME MAXIMUM GRID SPACING    1.5
Info: PME CALCULATION WILL BE PERFORMED ON GPU
Info: FULL ELECTROSTATIC EVALUATION FREQUENCY      2
Info: USING VERLET I (r-RESPA) MTS SCHEME.
Info: C1 SPLITTING OF LONG RANGE ELECTROSTATICS
Info: PLACING ATOMS IN PATCHES BY HYDROGEN GROUPS
Info: RIGID BONDS TO HYDROGEN : ALL
Info:         ERROR TOLERANCE : 1e-08
Info:          MAX ITERATIONS : 100
Info: RIGID WATER USING SETTLE ALGORITHM
Info: RANDOM NUMBER SEED     314159
Info: USE HYDROGEN BONDS?    NO
Info: COORDINATE PDB         ./5dhfr_cube.pdb
Info: STRUCTURE FILE         ./5dhfr_cube.psf
Info: PARAMETER file: CHARMM format!
Info: PARAMETERS             ./par_all22_prot.inp
Info: USING ARITHMETIC MEAN TO COMBINE L-J SIGMA PARAMETERS
Info: SUMMARY OF PARAMETERS:
Info: 138 BONDS
Info: 341 ANGLES
Info: 443 DIHEDRAL
Info: 46 IMPROPER
Info: 0 CROSSTERM
Info: 60 VDW
Info: 0 VDW_PAIRS
Info: 0 NBTHOLE_PAIRS
Info: STRUCTURE SUMMARY:
Info: 23558 ATOMS
Info: 16569 BONDS
Info: 11584 ANGLES
Info: 6701 DIHEDRALS
Info: 418 IMPROPERS
Info: 0 CROSSTERMS
Info: 0 EXCLUSIONS
Info: 22290 RIGID BONDS
Info: 48384 DEGREES OF FREEDOM
Info: 8291 HYDROGEN GROUPS
Info: 4 ATOMS IN LARGEST HYDROGEN GROUP
Info: 8291 MIGRATION GROUPS
Info: 4 ATOMS IN LARGEST MIGRATION GROUP
Info: TOTAL MASS = 144511 amu
Info: TOTAL CHARGE = -11 e
Info: MASS DENSITY = 0.995777 g/cm^3
Info: ATOM DENSITY = 0.097755 atoms/A^3
Info: ADDED 34709 IMPLICIT EXCLUSIONS
Info: NONBONDED TABLE R-SQUARED SPACING: 0.0625
Info: NONBONDED TABLE SIZE: 769 POINTS
Info: REMOVING COM VELOCITY 0.0191115 -0.0160564 0.0528566
Info: Use 3D box decompostion in PME FFT.
Info: Updated CUDA force table with 4096 elements.
Info: Updated CUDA LJ table with 60 x 60 elements.
Info: Updated CUDA force table with 4096 elements.
Info: Updated CUDA LJ table with 60 x 60 elements.
Info: Updated CUDA force table with 4096 elements.
Info: Updated CUDA LJ table with 60 x 60 elements.
Info: Updated CUDA force table with 4096 elements.
Info: Updated CUDA LJ table with 60 x 60 elements.
Info: Found 275 unique exclusion lists needing 860 bytes
Info: Found 275 unique exclusion lists needing 860 bytes
Info: Found 275 unique exclusion lists needing 860 bytes
Info: Found 275 unique exclusion lists needing 860 bytes
TCL: Running for 1000000 steps
ETITLE: TS BOND ANGLE DIHED IMPRP ELECT VDW BOUNDARY MISC KINETIC TOTAL TEMP POTENTIAL TOTALAVG TEMPAVG PRESSURE GPRESSURE VOLUME PRESSAVG GPRESSAVG
ENERGY: 0 587.1760 1383.8941 921.7804 101.4568 -82756.2528 7409.4656 0.0000 0.0000 14367.6986 -57984.7812 298.8655 -72352.4798 -57984.7812 298.8655 145.0843 181.0127 240990.2116 145.0843 181.0127
ENERGY: 65000 504.7916 1409.4734 835.4388 80.3522 -82741.1817 6562.8353 0.0000 0.0000 14411.6264 -58936.6639 299.7793 -73348.2904 -58767.6128 299.2944 -105.4194 -73.6874 230603.0327 -50.5838 -18.7301
ENERGY: 130000 492.6701 1417.0937 821.8027 84.2029 -82256.8471 6412.3162 0.0000 0.0000 14418.2496 -58610.5118 299.9170 -73028.7614 -58887.7283 299.4960 -38.9418 -7.7565 230857.8159 -62.7301 -34.4996
ENERGY: 190000 472.1635 1317.6399 850.2626 77.6714 -82630.0087 6427.1254 0.0000 0.0000 14318.6496 -59166.4964 297.8452 -73485.1459 -58907.6977 299.6314 -273.2752 -241.5876 229539.1471 -44.1908 -16.4108
ENERGY: 255000 486.6659 1377.0241 863.0021 80.2998 -82570.4795 6458.3053 0.0000 0.0000 14411.0311 -58894.1512 299.7669 -73305.1824 -58957.3875 299.0201 62.9851 96.5927 229929.4722 -105.9471 -75.8886
ENERGY: 320000 496.5543 1435.3982 824.4620 85.8141 -82350.7004 6296.1309 0.0000 0.0000 14366.2898 -58846.0510 298.8362 -73212.3408 -58903.1306 299.1428 -250.5737 -221.2546 230102.7554 -42.1221 -12.5616
