Info: SIMULATION PARAMETERS:
Info: TIMESTEP               2
Info: NUMBER OF STEPS        0
Info: STEPS PER CYCLE        20
Info: PERIODIC CELL BASIS 1  62.23 0 0
Info: PERIODIC CELL BASIS 2  0 62.23 0
Info: PERIODIC CELL BASIS 3  0 0 62.23
Info: PERIODIC CELL CENTER   0 0 0
Info: MIN ATOMS PER PATCH    40
Info: EMPTY PATCH LOAD       40 ATOMS
Info: INITIAL TEMPERATURE    300
Info: CENTER OF MASS MOVING INITIALLY? NO
Info: DIELECTRIC             1
Info: EXCLUDE                SCALED ONE-FOUR
Info: 1-4 ELECTROSTATICS SCALED BY 1
Info: MODIFIED 1-4 VDW PARAMETERS WILL BE USED
Info: NO DCD TRAJECTORY OUTPUT
Info: NO EXTENDED SYSTEM TRAJECTORY OUTPUT
Info: NO VELOCITY DCD OUTPUT
Info: NO FORCE DCD OUTPUT
Info: OUTPUT FILENAME        out_dhfr
Info: BINARY OUTPUT FILES WILL BE USED
Info: NO RESTART FILE
Info: SWITCHING ACTIVE
Info: SWITCHING ON           10
Info: SWITCHING OFF          12
Info: PAIRLIST DISTANCE      13.5
Info: PAIRLIST SHRINK RATE   0
Info: PAIRLIST GROW RATE     0
Info: PAIRLIST TRIGGER       0
Info: PAIRLISTS PER CYCLE    2
Info: PAIRLISTS ENABLED
Info: MARGIN                 2
Info: HYDROGEN GROUP CUTOFF  2.5
Info: PATCH DIMENSION        18
Info: ENERGY OUTPUT STEPS    5000
Info: ENERGY EVALUATION STEPS    5000
Info: OUTPUT ENERGY PRECISION 4
Info: CROSSTERM ENERGY INCLUDED IN DIHEDRAL
Info: TIMING OUTPUT STEPS    5000
Info: PRESSURE OUTPUT STEPS  5000
Info: PARTICLE MESH EWALD (PME) ACTIVE
Info: PME TOLERANCE               1e-06
Info: PME EWALD COEFFICIENT       0.257952
Info: PME INTERPOLATION ORDER     4
Info: PME GRID DIMENSIONS         64 64 64
Info: PME MAXIMUM GRID SPACING    1.5
Info: PME CALCULATION WILL BE PERFORMED ON GPU
Info: FULL ELECTROSTATIC EVALUATION FREQUENCY      2
Info: USING VERLET I (r-RESPA) MTS SCHEME.
Info: C1 SPLITTING OF LONG RANGE ELECTROSTATICS
Info: PLACING ATOMS IN PATCHES BY HYDROGEN GROUPS
Info: RIGID BONDS TO HYDROGEN : ALL
Info:         ERROR TOLERANCE : 1e-08
Info:          MAX ITERATIONS : 100
Info: RIGID WATER USING SETTLE ALGORITHM
Info: RANDOM NUMBER SEED     314159
Info: USE HYDROGEN BONDS?    NO
Info: COORDINATE PDB         ./5dhfr_cube.pdb
Info: STRUCTURE FILE         ./5dhfr_cube.psf
Info: PARAMETER file: CHARMM format!
Info: PARAMETERS             ./par_all22_prot.inp
Info: USING ARITHMETIC MEAN TO COMBINE L-J SIGMA PARAMETERS
Info: SUMMARY OF PARAMETERS:
Info: 138 BONDS
Info: 341 ANGLES
Info: 443 DIHEDRAL
Info: 46 IMPROPER
Info: 0 CROSSTERM
Info: 60 VDW
Info: 0 VDW_PAIRS
Info: 0 NBTHOLE_PAIRS
Info: STRUCTURE SUMMARY:
Info: 23558 ATOMS
Info: 16569 BONDS
Info: 11584 ANGLES
Info: 6701 DIHEDRALS
Info: 418 IMPROPERS
Info: 0 CROSSTERMS
Info: 0 EXCLUSIONS
Info: 22290 RIGID BONDS
Info: 48381 DEGREES OF FREEDOM
Info: 8291 HYDROGEN GROUPS
Info: 4 ATOMS IN LARGEST HYDROGEN GROUP
Info: 8291 MIGRATION GROUPS
Info: 4 ATOMS IN LARGEST MIGRATION GROUP
Info: TOTAL MASS = 144511 amu
Info: TOTAL CHARGE = -11 e
Info: MASS DENSITY = 0.995777 g/cm^3
Info: ATOM DENSITY = 0.097755 atoms/A^3
Info: ADDED 34709 IMPLICIT EXCLUSIONS
Info: NONBONDED TABLE R-SQUARED SPACING: 0.0625
Info: NONBONDED TABLE SIZE: 769 POINTS
Info: REMOVING COM VELOCITY 0.0191115 -0.0160564 0.0528566
Info: Use 3D box decompostion in PME FFT.
Info: Updated CUDA force table with 4096 elements.
Info: Updated CUDA LJ table with 60 x 60 elements.
Info: Updated CUDA force table with 4096 elements.
Info: Updated CUDA LJ table with 60 x 60 elements.
Info: Updated CUDA force table with 4096 elements.
Info: Updated CUDA LJ table with 60 x 60 elements.
Info: Updated CUDA force table with 4096 elements.
Info: Updated CUDA LJ table with 60 x 60 elements.
Info: Found 275 unique exclusion lists needing 860 bytes
Info: Found 275 unique exclusion lists needing 860 bytes
Info: Found 275 unique exclusion lists needing 860 bytes
Info: Found 275 unique exclusion lists needing 860 bytes
TCL: Running for 1000000 steps
ETITLE: TS BOND ANGLE DIHED IMPRP ELECT VDW BOUNDARY MISC KINETIC TOTAL TEMP POTENTIAL TOTALAVG TEMPAVG PRESSURE GPRESSURE VOLUME PRESSAVG GPRESSAVG
ENERGY: 0 587.1760 1383.8941 921.7804 101.4568 -82756.2528 7409.4656 0.0000 0.0000 14367.6986 -57984.7813 298.8841 -72352.4798 -57984.7813 298.8841 145.0841 181.0125 240990.2116 145.0841 181.0125
ENERGY: 100000 512.9164 1345.9362 847.0078 70.2136 -81520.5307 6236.9659 0.0000 0.0000 14537.2761 -57970.2147 302.4117 -72507.4907 -57973.5580 300.3709 -906.3863 -877.0721 240990.2116 -854.7534 -826.0040
ENERGY: 200000 493.7885 1358.7211 832.2766 82.4892 -81478.7567 6228.6077 0.0000 0.0000 14518.8285 -57964.0452 302.0279 -72482.8736 -57965.5965 299.7223 -783.0131 -750.7562 240990.2116 -843.8428 -812.8014
ENERGY: 305000 503.7703 1435.8056 844.5330 74.7401 -81549.8472 6390.2464 0.0000 0.0000 14348.8937 -57951.8582 298.4929 -72300.7518 -57956.5353 300.1257 -539.4348 -513.2951 240990.2116 -863.5394 -833.9336
ENERGY: 405000 465.7484 1383.3949 832.1580 75.8436 -81612.7318 6496.0887 0.0000 0.0000 14417.4744 -57942.0238 299.9195 -72359.4983 -57945.6174 300.4521 -586.9834 -558.0369 240990.2116 -769.6415 -740.2377
ENERGY: 505000 491.5593 1312.2479 825.7703 87.4962 -81183.9211 6118.3760 0.0000 0.0000 14413.1799 -57935.2914 299.8302 -72348.4713 -57940.5184 300.2034 -956.2081 -931.3475 240990.2116 -799.6299 -771.3837
