Info: SIMULATION PARAMETERS:
Info: TIMESTEP               2
Info: NUMBER OF STEPS        0
Info: STEPS PER CYCLE        20
Info: PERIODIC CELL BASIS 1  216.832 0 0
Info: PERIODIC CELL BASIS 2  0 216.832 0
Info: PERIODIC CELL BASIS 3  0 0 216.832
Info: PERIODIC CELL CENTER   0 0 0
Info: MIN ATOMS PER PATCH    40
Info: EMPTY PATCH LOAD       40 ATOMS
Info: INITIAL TEMPERATURE    298
Info: CENTER OF MASS MOVING INITIALLY? NO
Info: DIELECTRIC             1
Info: EXCLUDE                SCALED ONE-FOUR
Info: 1-4 ELECTROSTATICS SCALED BY 1
Info: MODIFIED 1-4 VDW PARAMETERS WILL BE USED
Info: NO DCD TRAJECTORY OUTPUT
Info: NO EXTENDED SYSTEM TRAJECTORY OUTPUT
Info: NO VELOCITY DCD OUTPUT
Info: NO FORCE DCD OUTPUT
Info: OUTPUT FILENAME        out_stmv
Info: BINARY OUTPUT FILES WILL BE USED
Info: NO RESTART FILE
Info: SWITCHING ACTIVE
Info: SWITCHING ON           10
Info: SWITCHING OFF          12
Info: PAIRLIST DISTANCE      13.5
Info: PAIRLIST SHRINK RATE   0
Info: PAIRLIST GROW RATE     0
Info: PAIRLIST TRIGGER       0
Info: PAIRLISTS PER CYCLE    2
Info: PAIRLISTS ENABLED
Info: MARGIN                 4
Info: HYDROGEN GROUP CUTOFF  2.5
Info: PATCH DIMENSION        20
Info: ENERGY OUTPUT STEPS    500
Info: ENERGY EVALUATION STEPS    500
Info: OUTPUT ENERGY PRECISION 4
Info: CROSSTERM ENERGY INCLUDED IN DIHEDRAL
Info: TIMING OUTPUT STEPS    500
Info: PRESSURE OUTPUT STEPS  500
Info: LANGEVIN DYNAMICS ACTIVE
Info: LANGEVIN TEMPERATURE   298
Info: LANGEVIN USING BBK INTEGRATOR
Info: LANGEVIN DAMPING COEFFICIENT IS 5 INVERSE PS
Info: LANGEVIN DYNAMICS NOT APPLIED TO HYDROGENS
Info: LANGEVIN PISTON PRESSURE CONTROL ACTIVE
Info:        TARGET PRESSURE IS 1.01325 BAR
Info:     OSCILLATION PERIOD IS 100 FS
Info:             DECAY TIME IS 50 FS
Info:     PISTON TEMPERATURE IS 298 K
Info:       PRESSURE CONTROL IS GROUP-BASED
Info:    INITIAL STRAIN RATE IS 0 0 0
Info:       CELL FLUCTUATION IS ISOTROPIC
Info: PARTICLE MESH EWALD (PME) ACTIVE
Info: PME TOLERANCE               1e-06
Info: PME EWALD COEFFICIENT       0.257952
Info: PME INTERPOLATION ORDER     4
Info: PME GRID DIMENSIONS         216 216 216
Info: PME MAXIMUM GRID SPACING    1.5
Info: PME CALCULATION WILL BE PERFORMED ON GPU
Info: FULL ELECTROSTATIC EVALUATION FREQUENCY      2
Info: USING VERLET I (r-RESPA) MTS SCHEME.
Info: C1 SPLITTING OF LONG RANGE ELECTROSTATICS
Info: PLACING ATOMS IN PATCHES BY HYDROGEN GROUPS
Info: RIGID BONDS TO HYDROGEN : ALL
Info:         ERROR TOLERANCE : 1e-08
Info:          MAX ITERATIONS : 100
Info: RIGID WATER USING SETTLE ALGORITHM
Info: RANDOM NUMBER SEED     314159
Info: USE HYDROGEN BONDS?    NO
Info: COORDINATE PDB         ./stmv.pdb
Info: STRUCTURE FILE         ./stmv.psf
Info: PARAMETER file: CHARMM format!
Info: PARAMETERS             ./par_all27_prot_na.inp
Info: USING ARITHMETIC MEAN TO COMBINE L-J SIGMA PARAMETERS
Info: SUMMARY OF PARAMETERS:
Info: 250 BONDS
Info: 622 ANGLES
Info: 1049 DIHEDRAL
Info: 73 IMPROPER
Info: 0 CROSSTERM
Info: 130 VDW
Info: 0 VDW_PAIRS
Info: 0 NBTHOLE_PAIRS
Info: STRUCTURE SUMMARY:
Info: 1066628 ATOMS
Info: 769956 BONDS
Info: 605872 ANGLES
Info: 450875 DIHEDRALS
Info: 24578 IMPROPERS
Info: 0 CROSSTERMS
Info: 0 EXCLUSIONS
Info: 977416 RIGID BONDS
Info: 2222468 DEGREES OF FREEDOM
Info: 389067 HYDROGEN GROUPS
Info: 4 ATOMS IN LARGEST HYDROGEN GROUP
Info: 389067 MIGRATION GROUPS
Info: 4 ATOMS IN LARGEST MIGRATION GROUP
Info: TOTAL MASS = 6.69877e+06 amu
Info: TOTAL CHARGE = 0.000168104 e
Info: MASS DENSITY = 1.09115 g/cm^3
Info: ATOM DENSITY = 0.104627 atoms/A^3
Info: ADDED 1810196 IMPLICIT EXCLUSIONS
Info: NONBONDED TABLE R-SQUARED SPACING: 0.0625
Info: NONBONDED TABLE SIZE: 769 POINTS
Info: REMOVING COM VELOCITY 0.0051473 0.00422917 -0.00557441
Info: Use 3D box decompostion in PME FFT.
Info: Updated CUDA force table with 4096 elements.
Info: Updated CUDA LJ table with 130 x 130 elements.
Info: Updated CUDA force table with 4096 elements.
Info: Updated CUDA LJ table with 130 x 130 elements.
Info: Updated CUDA force table with 4096 elements.
Info: Updated CUDA LJ table with 130 x 130 elements.
Info: Updated CUDA force table with 4096 elements.
Info: Updated CUDA LJ table with 130 x 130 elements.
Info: Found 333 unique exclusion lists needing 1076 bytes
Info: Found 333 unique exclusion lists needing 1076 bytes
Info: Found 333 unique exclusion lists needing 1076 bytes
Info: Found 333 unique exclusion lists needing 1076 bytes
TCL: Running for 1000000 steps
ETITLE: TS BOND ANGLE DIHED IMPRP ELECT VDW BOUNDARY MISC KINETIC TOTAL TEMP POTENTIAL TOTALAVG TEMPAVG PRESSURE GPRESSURE VOLUME PRESSAVG GPRESSAVG
ENERGY: 0 37737.0841 105740.7885 81950.3143 4986.4951 -4134761.3752 375589.9995 0.0000 0.0000 658931.0824 -2869825.6113 298.3973 -3528756.6937 -2869825.6113 298.3973 2297.1266 2341.3520 10194598.5131 2297.1266 2341.3520
ENERGY: 9500 39077.9545 107975.2967 82025.3103 5091.5267 -3970825.7281 280046.0069 0.0000 0.0000 656013.6747 -2800595.9583 297.0761 -3456609.6330 -2806774.0550 297.0614 -39.5591 -1.2259 10396867.5382 75.8880 113.7902
ENERGY: 19000 38889.4386 107553.5038 82323.0534 5078.4577 -3969803.0864 278987.4826 0.0000 0.0000 655841.6709 -2801129.4793 296.9982 -3456971.1503 -2800175.2962 297.2807 -37.6916 0.3792 10399702.9956 -36.2851 1.0944
ENERGY: 28500 39384.2848 107215.3114 82132.7539 5199.6313 -3967568.2661 278065.5153 0.0000 0.0000 655588.9454 -2799981.8240 296.8838 -3455570.7694 -2799562.3373 297.3471 -132.6785 -93.9544 10403475.5822 -45.6243 -8.4264
ENERGY: 38000 39033.9574 107694.4302 82047.6080 5120.7677 -3970005.9594 279710.8874 0.0000 0.0000 657978.9591 -2798419.3498 297.9661 -3456398.3088 -2799698.4462 297.3909 -12.6486 22.4290 10399112.5820 -42.1404 -5.3008
ENERGY: 47500 39035.8121 107222.7922 82049.3009 5188.8088 -3968595.6707 279280.0558 0.0000 0.0000 657210.6784 -2798608.2226 297.6182 -3455818.9010 -2799515.7631 297.3891 -42.2405 -2.9589 10407114.6901 -36.6566 0.7044
